Paper_Nodos_Debiles/ieee13_noload_out.txt
ANDES 1.9.3
Copyright (C) 2015-2022 Hantao Cui

ANDES comes with ABSOLUTELY NO WARRANTY
Case file: ieee13_noload.xlsx
Report time: 12/28/2025 03:35:41 PM

Power flow converged in 3 iterations.
Flat-start: No

Statistics:
Buses                             13
Generators                        13
Committed Gens                    13
Loads                             13
Shunts                             0
Lines                             12
Transformers                       0
Areas                              0

EXTENDED SUMMARY:
                              P (pu)            Q (pu)

Generation                  0.013765         -0.094144
Load                          0.0125           0.00125

BUS DATA:
                            Bus Name            Vm(pu)          Va(rad.)

1                                650                 1        3.1885e-21
2                                632              1.02        -0.0023778
3                                633              1.02        -0.0024024
4                                634              1.02         -0.002423
5                                645              1.02        -0.0024024
6                                646              1.02        -0.0024043
7                                671              1.02        -0.0024356
8                                680              1.02        -0.0024365
9                                684              1.02        -0.0024378
10                               611              1.02        -0.0024389
11                               652              1.02        -0.0024389
12                               692              1.02        -0.0024369
13                               675              1.02        -0.0024385

LINE DATA:
                           Line Name     Fr. Bus (idx)      To Bus (idx)       P From (pu)       Q From (pu)         P To (pu)         Q To (pu)

1                                  1                 1                 2          0.013265          -0.63158            -0.012           0.64262
2                                  2                 2                 3             0.002        -0.0018374            -0.002        -0.0014374
3                                  3                 2                 5             0.002        -0.0018374            -0.002        -0.0014374
4                                  4                 5                 6            0.0015        -0.0042437           -0.0015        -0.0039437
5                                  5                 3                 4            0.0015        -0.0026062           -0.0015        -0.0023062
6                                  6                 2                 7            0.0075        -0.0023873           -0.0075       -0.00088725
7                                  7                 7                 8            0.0015        -0.0058811           -0.0015        -0.0055811
8                                  8                 7                 9            0.0035        -0.0060811           -0.0035        -0.0053811
9                                  9                 7                12             0.002        -0.0059311            -0.002        -0.0055311
10                                10                 9                10            0.0015        -0.0075186           -0.0015        -0.0072186
11                                11                 9                11            0.0015        -0.0075186           -0.0015        -0.0072186
12                                12                12                13            0.0015        -0.0099748           -0.0015        -0.0096748

OTHER ALGEBRAIC VARIABLES:
                                    

q PV 2                        0.6366
q PV 3                     -0.003994
q PV 4                     -0.002156
q PV 5                     -0.005631
q PV 6                     -0.003794
q PV 7                     -0.018731
q PV 8                     -0.005431
q PV 9                     -0.020368
q PV 10                    -0.007069
q PV 11                    -0.007069
q PV 12                    -0.015456
q PV 13                    -0.009525
q Slack 1                   -0.63153
p Slack 1                   0.013765

